    72
 CELL = 12.771000 12.771000 14.000 (4.257000)
 Mg      0.000000000000    0.000000000000   -0.000000000000
 Mg      2.128500000000    2.128500000000   -0.000000000000
 Mg      2.128500000000    0.000000000000    2.128500000000
 Mg      0.000000000000    2.128500000000    2.128500000000
 O       2.128500000000    2.128500000000    2.128500000000
 O       0.000000000000    0.000000000000    2.128500000000
 O       0.000000000000    2.128500000000   -0.000000000000
 O       2.128500000000    0.000000000000   -0.000000000000
 Mg      0.000000000000    4.257000000000   -0.000000000000
 Mg      2.128500000000    6.385500000000   -0.000000000000
 Mg      2.128500000000    4.257000000000    2.128500000000
 Mg      0.000000000000    6.385500000000    2.128500000000
 O       2.128500000000    6.385500000000    2.128500000000
 O       0.000000000000    4.257000000000    2.128500000000
 O       0.000000000000    6.385500000000   -0.000000000000
 O       2.128500000000    4.257000000000   -0.000000000000
 Mg      0.000000000000    8.514000000000   -0.000000000000
 Mg      2.128500000000   10.642500000000   -0.000000000000
 Mg      2.128500000000    8.514000000000    2.128500000000
 Mg      0.000000000000   10.642500000000    2.128500000000
 O       2.128500000000   10.642500000000    2.128500000000
 O       0.000000000000    8.514000000000    2.128500000000
 O       0.000000000000   10.642500000000   -0.000000000000
 O       2.128500000000    8.514000000000   -0.000000000000
 Mg      4.257000000000    0.000000000000   -0.000000000000
 Mg      6.385500000000    2.128500000000   -0.000000000000
 Mg      6.385500000000    0.000000000000    2.128500000000
 Mg      4.257000000000    2.128500000000    2.128500000000
 O       6.385500000000    2.128500000000    2.128500000000
 O       4.257000000000    0.000000000000    2.128500000000
 O       4.257000000000    2.128500000000   -0.000000000000
 O       6.385500000000    0.000000000000   -0.000000000000
 Mg      4.257000000000    4.257000000000   -0.000000000000
 Mg      6.385500000000    6.385500000000   -0.000000000000
 Mg      6.385500000000    4.257000000000    2.128500000000
 Mg      4.257000000000    6.385500000000    2.128500000000
 O       6.385500000000    6.385500000000    2.128500000000
 O       4.257000000000    4.257000000000    2.128500000000
 O       4.257000000000    6.385500000000   -0.000000000000
 O       6.385500000000    4.257000000000   -0.000000000000
 Mg      4.257000000000    8.514000000000   -0.000000000000
 Mg      6.385500000000   10.642500000000   -0.000000000000
 Mg      6.385500000000    8.514000000000    2.128500000000
 Mg      4.257000000000   10.642500000000    2.128500000000
 O       6.385500000000   10.642500000000    2.128500000000
 O       4.257000000000    8.514000000000    2.128500000000
 O       4.257000000000   10.642500000000   -0.000000000000
 O       6.385500000000    8.514000000000   -0.000000000000
 Mg      8.514000000000    0.000000000000   -0.000000000000
 Mg     10.642500000000    2.128500000000   -0.000000000000
 Mg     10.642500000000    0.000000000000    2.128500000000
 Mg      8.514000000000    2.128500000000    2.128500000000
 O      10.642500000000    2.128500000000    2.128500000000
 O       8.514000000000    0.000000000000    2.128500000000
 O       8.514000000000    2.128500000000   -0.000000000000
 O      10.642500000000    0.000000000000   -0.000000000000
 Mg      8.514000000000    4.257000000000   -0.000000000000
 Mg     10.642500000000    6.385500000000   -0.000000000000
 Mg     10.642500000000    4.257000000000    2.128500000000
 Mg      8.514000000000    6.385500000000    2.128500000000
 O      10.642500000000    6.385500000000    2.128500000000
 O       8.514000000000    4.257000000000    2.128500000000
 O       8.514000000000    6.385500000000   -0.000000000000
 O      10.642500000000    4.257000000000   -0.000000000000
 Mg      8.514000000000    8.514000000000   -0.000000000000
 Mg     10.642500000000   10.642500000000   -0.000000000000
 Mg     10.642500000000    8.514000000000    2.128500000000
 Mg      8.514000000000   10.642500000000    2.128500000000
 O      10.642500000000   10.642500000000    2.128500000000
 O       8.514000000000    8.514000000000    2.128500000000
 O       8.514000000000   10.642500000000   -0.000000000000
 O      10.642500000000    8.514000000000   -0.000000000000