192
 CELL = 14.267160 14.267160 20.000000 (20.000000)
    H    0.00000000    0.00000000    0.00000000
    H    0.00000000    3.56679000    0.00000000
    H    0.00000000    7.13358000    0.00000000
    H    0.00000000   10.70037100    0.00000000
    H    1.78339500    1.78339500    0.00000000
    H    1.78339500    5.35018500    0.00000000
    H    1.78339500    8.91697500    0.00000000
    H    1.78339500   12.48376600    0.00000000
    H    3.56679000    0.00000000    0.00000000
    H    3.56679000    3.56679000    0.00000000
    H    3.56679000    7.13358000    0.00000000
    H    3.56679000   10.70037100    0.00000000
    H    5.35018500    1.78339500    0.00000000
    H    5.35018500    5.35018500    0.00000000
    H    5.35018500    8.91697500    0.00000000
    H    5.35018500   12.48376600    0.00000000
    H    7.13358000    0.00000000    0.00000000
    H    7.13358000    3.56679000    0.00000000
    H    7.13358000    7.13358000    0.00000000
    H    7.13358000   10.70037100    0.00000000
    H    8.91697500    1.78339500    0.00000000
    H    8.91697500    5.35018500    0.00000000
    H    8.91697500    8.91697500    0.00000000
    H    8.91697500   12.48376600    0.00000000
    H   10.70037100    0.00000000    0.00000000
    H   10.70037100    3.56679000    0.00000000
    H   10.70037100    7.13358000    0.00000000
    H   10.70037100   10.70037100    0.00000000
    H   12.48376600    1.78339500    0.00000000
    H   12.48376600    5.35018500    0.00000000
    H   12.48376600    8.91697500    0.00000000
    H   12.48376600   12.48376600    0.00000000
    C    0.00000000    0.00000000    1.08845100
    C    0.00000000    3.56679000    1.08845100
    C    0.00000000    7.13358000    1.08845100
    C    0.00000000   10.70037100    1.08845100
    C    1.78339500    1.78339500    1.08845100
    C    1.78339500    5.35018500    1.08845100
    C    1.78339500    8.91697500    1.08845100
    C    1.78339500   12.48376600    1.08845100
    C    3.56679000    0.00000000    1.08845100
    C    3.56679000    3.56679000    1.08845100
    C    3.56679000    7.13358000    1.08845100
    C    3.56679000   10.70037100    1.08845100
    C    5.35018500    1.78339500    1.08845100
    C    5.35018500    5.35018500    1.08845100
    C    5.35018500    8.91697500    1.08845100
    C    5.35018500   12.48376600    1.08845100
    C    7.13358000    0.00000000    1.08845100
    C    7.13358000    3.56679000    1.08845100
    C    7.13358000    7.13358000    1.08845100
    C    7.13358000   10.70037100    1.08845100
    C    8.91697500    1.78339500    1.08845100
    C    8.91697500    5.35018500    1.08845100
    C    8.91697500    8.91697500    1.08845100
    C    8.91697500   12.48376600    1.08845100
    C   10.70037100    0.00000000    1.08845100
    C   10.70037100    3.56679000    1.08845100
    C   10.70037100    7.13358000    1.08845100
    C   10.70037100   10.70037100    1.08845100
    C   12.48376600    1.78339500    1.08845100
    C   12.48376600    5.35018500    1.08845100
    C   12.48376600    8.91697500    1.08845100
    C   12.48376600   12.48376600    1.08845100
    C    0.89169800    0.89169800    1.87839100
    C    0.89169800    4.45848800    1.87839100
    C    0.89169800    8.02527800    1.87839100
    C    0.89169800   11.59206900    1.87839100
    C    2.67509300    2.67509300    1.87839100
    C    2.67509300    6.24188300    1.87839100
    C    2.67509300    9.80867300    1.87839100
    C    2.67509300   13.37546300    1.87839100
    C    4.45848800    0.89169800    1.87839100
    C    4.45848800    4.45848800    1.87839100
    C    4.45848800    8.02527800    1.87839100
    C    4.45848800   11.59206900    1.87839100
    C    6.24188300    2.67509300    1.87839100
    C    6.24188300    6.24188300    1.87839100
    C    6.24188300    9.80867300    1.87839100
    C    6.24188300   13.37546300    1.87839100
    C    8.02527800    0.89169800    1.87839100
    C    8.02527800    4.45848800    1.87839100
    C    8.02527800    8.02527800    1.87839100
    C    8.02527800   11.59206900    1.87839100
    C    9.80867300    2.67509300    1.87839100
    C    9.80867300    6.24188300    1.87839100
    C    9.80867300    9.80867300    1.87839100
    C    9.80867300   13.37546300    1.87839100
    C   11.59206900    0.89169800    1.87839100
    C   11.59206900    4.45848800    1.87839100
    C   11.59206900    8.02527800    1.87839100
    C   11.59206900   11.59206900    1.87839100
    C   13.37546300    2.67509300    1.87839100
    C   13.37546300    6.24188300    1.87839100
    C   13.37546300    9.80867300    1.87839100
    C   13.37546300   13.37546300    1.87839100
    C    0.00000000    1.78339500    2.81384100
    C    0.00000000    5.35018500    2.81384100
    C    0.00000000    8.91697500    2.81384100
    C    0.00000000   12.48376600    2.81384100
    C    1.78339500    0.00000000    2.81384100
    C    1.78339500    3.56679000    2.81384100
    C    1.78339500    7.13358000    2.81384100
    C    1.78339500   10.70037100    2.81384100
    C    3.56679000    1.78339500    2.81384100
    C    3.56679000    5.35018500    2.81384100
    C    3.56679000    8.91697500    2.81384100
    C    3.56679000   12.48376600    2.81384100
    C    5.35018500    0.00000000    2.81384100
    C    5.35018500    3.56679000    2.81384100
    C    5.35018500    7.13358000    2.81384100
    C    5.35018500   10.70037100    2.81384100
    C    7.13358000    1.78339500    2.81384100
    C    7.13358000    5.35018500    2.81384100
    C    7.13358000    8.91697500    2.81384100
    C    7.13358000   12.48376600    2.81384100
    C    8.91697500    0.00000000    2.81384100
    C    8.91697500    3.56679000    2.81384100
    C    8.91697500    7.13358000    2.81384100
    C    8.91697500   10.70037100    2.81384100
    C   10.70037100    1.78339500    2.81384100
    C   10.70037100    5.35018500    2.81384100
    C   10.70037100    8.91697500    2.81384100
    C   10.70037100   12.48376600    2.81384100
    C   12.48376600    0.00000000    2.81384100
    C   12.48376600    3.56679000    2.81384100
    C   12.48376600    7.13358000    2.81384100
    C   12.48376600   10.70037100    2.81384100
    C    0.89169800    2.67509300    3.74929100
    C    0.89169800    6.24188300    3.74929100
    C    0.89169800    9.80867300    3.74929100
    C    0.89169800   13.37546300    3.74929100
    C    2.67509300    0.89169800    3.74929100
    C    2.67509300    4.45848800    3.74929100
    C    2.67509300    8.02527800    3.74929100
    C    2.67509300   11.59206900    3.74929100
    C    4.45848800    2.67509300    3.74929100
    C    4.45848800    6.24188300    3.74929100
    C    4.45848800    9.80867300    3.74929100
    C    4.45848800   13.37546300    3.74929100
    C    6.24188300    0.89169800    3.74929100
    C    6.24188300    4.45848800    3.74929100
    C    6.24188300    8.02527800    3.74929100
    C    6.24188300   11.59206900    3.74929100
    C    8.02527800    2.67509300    3.74929100
    C    8.02527800    6.24188300    3.74929100
    C    8.02527800    9.80867300    3.74929100
    C    8.02527800   13.37546300    3.74929100
    C    9.80867300    0.89169800    3.74929100
    C    9.80867300    4.45848800    3.74929100
    C    9.80867300    8.02527800    3.74929100
    C    9.80867300   11.59206900    3.74929100
    C   11.59206900    2.67509300    3.74929100
    C   11.59206900    6.24188300    3.74929100
    C   11.59206900    9.80867300    3.74929100
    C   11.59206900   13.37546300    3.74929100
    C   13.37546300    0.89169800    3.74929100
    C   13.37546300    4.45848800    3.74929100
    C   13.37546300    8.02527800    3.74929100
    C   13.37546300   11.59206900    3.74929100
    C    0.00000000    0.00000000    4.53923100
    C    0.00000000    3.56679000    4.53923100
    C    0.00000000    7.13358000    4.53923100
    C    0.00000000   10.70037100    4.53923100
    C    1.78339500    1.78339500    4.53923100
    C    1.78339500    5.35018500    4.53923100
    C    1.78339500    8.91697500    4.53923100
    C    1.78339500   12.48376600    4.53923100
    C    3.56679000    0.00000000    4.53923100
    C    3.56679000    3.56679000    4.53923100
    C    3.56679000    7.13358000    4.53923100
    C    3.56679000   10.70037100    4.53923100
    C    5.35018500    1.78339500    4.53923100
    C    5.35018500    5.35018500    4.53923100
    C    5.35018500    8.91697500    4.53923100
    C    5.35018500   12.48376600    4.53923100
    C    7.13358000    0.00000000    4.53923100
    C    7.13358000    3.56679000    4.53923100
    C    7.13358000    7.13358000    4.53923100
    C    7.13358000   10.70037100    4.53923100
    C    8.91697500    1.78339500    4.53923100
    C    8.91697500    5.35018500    4.53923100
    C    8.91697500    8.91697500    4.53923100
    C    8.91697500   12.48376600    4.53923100
    C   10.70037100    0.00000000    4.53923100
    C   10.70037100    3.56679000    4.53923100
    C   10.70037100    7.13358000    4.53923100
    C   10.70037100   10.70037100    4.53923100
    C   12.48376600    1.78339500    4.53923100
    C   12.48376600    5.35018500    4.53923100
    C   12.48376600    8.91697500    4.53923100
    C   12.48376600   12.48376600    4.53923100
